96
(3,3) Nanotube (1,1,8) replication -- TubeGen 3.3, J T Frey, University of Delaware
  C        2.064591     0.000000    -9.857126
  C        1.575573     1.334205    -9.857126
  C        1.032295     1.787988    -8.624986
  C       -0.367669     2.031589    -8.624986
  C       -1.032295     1.787988    -9.857126
  C       -1.943242     0.697384    -9.857126
  C       -2.064591     0.000000    -8.624986
  C       -1.575573    -1.334205    -8.624986
  C       -1.032295    -1.787988    -9.857126
  C        0.367669    -2.031589    -9.857126
  C        1.032295    -1.787988    -8.624986
  C        1.943242    -0.697384    -8.624986
  C        2.064591     0.000000    -7.392845
  C        1.575573     1.334205    -7.392845
  C        1.032295     1.787988    -6.160704
  C       -0.367669     2.031589    -6.160704
  C       -1.032295     1.787988    -7.392845
  C       -1.943242     0.697384    -7.392845
  C       -2.064591     0.000000    -6.160704
  C       -1.575573    -1.334205    -6.160704
  C       -1.032295    -1.787988    -7.392845
  C        0.367669    -2.031589    -7.392845
  C        1.032295    -1.787988    -6.160704
  C        1.943242    -0.697384    -6.160704
  C        2.064591     0.000000    -4.928563
  C        1.575573     1.334205    -4.928563
  C        1.032295     1.787988    -3.696422
  C       -0.367669     2.031589    -3.696422
  C       -1.032295     1.787988    -4.928563
  C       -1.943242     0.697384    -4.928563
  C       -2.064591     0.000000    -3.696422
  C       -1.575573    -1.334205    -3.696422
  C       -1.032295    -1.787988    -4.928563
  C        0.367669    -2.031589    -4.928563
  C        1.032295    -1.787988    -3.696422
  C        1.943242    -0.697384    -3.696422
  C        2.064591     0.000000    -2.464282
  C        1.575573     1.334205    -2.464282
  C        1.032295     1.787988    -1.232141
  C       -0.367669     2.031589    -1.232141
  C       -1.032295     1.787988    -2.464282
  C       -1.943242     0.697384    -2.464282
  C       -2.064591     0.000000    -1.232141
  C       -1.575573    -1.334205    -1.232141
  C       -1.032295    -1.787988    -2.464282
  C        0.367669    -2.031589    -2.464282
  C        1.032295    -1.787988    -1.232141
  C        1.943242    -0.697384    -1.232141
  C        2.064591     0.000000     0.000000
  C        1.575573     1.334205     0.000000
  C        1.032295     1.787988     1.232141
  C       -0.367669     2.031589     1.232141
  C       -1.032295     1.787988     0.000000
  C       -1.943242     0.697384     0.000000
  C       -2.064591     0.000000     1.232141
  C       -1.575573    -1.334205     1.232141
  C       -1.032295    -1.787988     0.000000
  C        0.367669    -2.031589     0.000000
  C        1.032295    -1.787988     1.232141
  C        1.943242    -0.697384     1.232141
  C        2.064591     0.000000     2.464282
  C        1.575573     1.334205     2.464282
  C        1.032295     1.787988     3.696422
  C       -0.367669     2.031589     3.696422
  C       -1.032295     1.787988     2.464282
  C       -1.943242     0.697384     2.464282
  C       -2.064591     0.000000     3.696422
  C       -1.575573    -1.334205     3.696422
  C       -1.032295    -1.787988     2.464282
  C        0.367669    -2.031589     2.464282
  C        1.032295    -1.787988     3.696422
  C        1.943242    -0.697384     3.696422
  C        2.064591     0.000000     4.928563
  C        1.575573     1.334205     4.928563
  C        1.032295     1.787988     6.160704
  C       -0.367669     2.031589     6.160704
  C       -1.032295     1.787988     4.928563
  C       -1.943242     0.697384     4.928563
  C       -2.064591     0.000000     6.160704
  C       -1.575573    -1.334205     6.160704
  C       -1.032295    -1.787988     4.928563
  C        0.367669    -2.031589     4.928563
  C        1.032295    -1.787988     6.160704
  C        1.943242    -0.697384     6.160704
  C        2.064591     0.000000     7.392845
  C        1.575573     1.334205     7.392845
  C        1.032295     1.787988     8.624986
  C       -0.367669     2.031589     8.624986
  C       -1.032295     1.787988     7.392845
  C       -1.943242     0.697384     7.392845
  C       -2.064591     0.000000     8.624986
  C       -1.575573    -1.334205     8.624986
  C       -1.032295    -1.787988     7.392845
  C        0.367669    -2.031589     7.392845
  C        1.032295    -1.787988     8.624986
  C        1.943242    -0.697384     8.624986

